<?xml version="1.0" encoding="UTF-8"?>
<!-- SUMO Network Edges for Wakad-Hinjewadi Corridor -->
<edges>
    <!-- Hinjewadi-Wakad Road (main arterial) - Bidirectional -->
    <edge id="hw_road_1" from="hinjewadi_phase1" to="hw_1" numLanes="3" speed="13.89" priority="3"/>
    <edge id="hw_road_1_rev" from="hw_1" to="hinjewadi_phase1" numLanes="3" speed="13.89" priority="3"/>
    
    <edge id="hw_road_2" from="hw_1" to="hw_2" numLanes="3" speed="13.89" priority="3"/>
    <edge id="hw_road_2_rev" from="hw_2" to="hw_1" numLanes="3" speed="13.89" priority="3"/>
    
    <edge id="hw_road_3" from="hw_2" to="hw_3" numLanes="3" speed="13.89" priority="3"/>
    <edge id="hw_road_3_rev" from="hw_3" to="hw_2" numLanes="3" speed="13.89" priority="3"/>
    
    <edge id="hw_road_4" from="hw_3" to="bypass_junction" numLanes="3" speed="13.89" priority="3"/>
    <edge id="hw_road_4_rev" from="bypass_junction" to="hw_3" numLanes="3" speed="13.89" priority="3"/>
    
    <!-- Wakad Flyover -->
    <edge id="wf_1_edge" from="bypass_junction" to="wf_1" numLanes="2" speed="16.67" priority="4"/>
    <edge id="wf_1_edge_rev" from="wf_1" to="bypass_junction" numLanes="2" speed="16.67" priority="4"/>
    
    <edge id="wf_2_edge" from="wf_1" to="wf_2" numLanes="2" speed="16.67" priority="4"/>
    <edge id="wf_2_edge_rev" from="wf_2" to="wf_1" numLanes="2" speed="16.67" priority="4"/>
    
    <edge id="wf_3_edge" from="wf_2" to="wf_3" numLanes="2" speed="16.67" priority="4"/>
    <edge id="wf_3_edge_rev" from="wf_3" to="wf_2" numLanes="2" speed="16.67" priority="4"/>
    
    <edge id="wf_4_edge" from="wf_3" to="wakad_chowk" numLanes="2" speed="16.67" priority="4"/>
    <edge id="wf_4_edge_rev" from="wakad_chowk" to="wf_3" numLanes="2" speed="16.67" priority="4"/>
    
    <!-- Dange Chowk Road (connects to main road) -->
    <edge id="dc_road_1" from="hw_1" to="dc_1" numLanes="2" speed="11.11" priority="2"/>
    <edge id="dc_road_1_rev" from="dc_1" to="hw_1" numLanes="2" speed="11.11" priority="2"/>
    
    <edge id="dc_road_2" from="dc_1" to="dc_2" numLanes="2" speed="11.11" priority="2"/>
    <edge id="dc_road_2_rev" from="dc_2" to="dc_1" numLanes="2" speed="11.11" priority="2"/>
    
    <edge id="dc_road_3" from="dc_2" to="dc_3" numLanes="2" speed="11.11" priority="2"/>
    <edge id="dc_road_3_rev" from="dc_3" to="dc_2" numLanes="2" speed="11.11" priority="2"/>
    
    <edge id="dc_road_4" from="dc_3" to="dange_chowk" numLanes="2" speed="11.11" priority="2"/>
    <edge id="dc_road_4_rev" from="dange_chowk" to="dc_3" numLanes="2" speed="11.11" priority="2"/>
    
    <!-- Hinjewadi Phase 2 Road -->
    <edge id="p2_road_1" from="hinjewadi_phase2" to="p2_1" numLanes="2" speed="8.33" priority="2"/>
    <edge id="p2_road_1_rev" from="p2_1" to="hinjewadi_phase2" numLanes="2" speed="8.33" priority="2"/>
    
    <edge id="p2_road_2" from="p2_1" to="p2_2" numLanes="2" speed="8.33" priority="2"/>
    <edge id="p2_road_2_rev" from="p2_2" to="p2_1" numLanes="2" speed="8.33" priority="2"/>
    
    <edge id="p2_road_3" from="p2_2" to="p2_3" numLanes="2" speed="8.33" priority="2"/>
    <edge id="p2_road_3_rev" from="p2_3" to="p2_2" numLanes="2" speed="8.33" priority="2"/>
    
    <edge id="p2_road_4" from="p2_3" to="hw_1" numLanes="2" speed="8.33" priority="2"/>
    <edge id="p2_road_4_rev" from="hw_1" to="p2_3" numLanes="2" speed="8.33" priority="2"/>
    
    <!-- Rajiv Gandhi MIDC Road (Phase 1 to Phase 2) -->
    <edge id="midc_road_1" from="midc_1" to="midc_2" numLanes="2" speed="8.33" priority="2"/>
    <edge id="midc_road_1_rev" from="midc_2" to="midc_1" numLanes="2" speed="8.33" priority="2"/>
    
    <edge id="midc_road_2" from="midc_2" to="midc_3" numLanes="2" speed="8.33" priority="2"/>
    <edge id="midc_road_2_rev" from="midc_3" to="midc_2" numLanes="2" speed="8.33" priority="2"/>
    
    <edge id="midc_road_3" from="midc_3" to="hinjewadi_phase2" numLanes="2" speed="8.33" priority="2"/>
    <edge id="midc_road_3_rev" from="hinjewadi_phase2" to="midc_3" numLanes="2" speed="8.33" priority="2"/>
    
    <edge id="midc_to_phase1" from="hinjewadi_phase1" to="midc_1" numLanes="2" speed="8.33" priority="2"/>
    <edge id="midc_to_phase1_rev" from="midc_1" to="hinjewadi_phase1" numLanes="2" speed="8.33" priority="2"/>
    
    <!-- NH48 Bypass (highway) -->
    <edge id="nh48_1_edge" from="nh48_south" to="nh48_1" numLanes="3" speed="22.22" priority="5"/>
    <edge id="nh48_1_edge_rev" from="nh48_1" to="nh48_south" numLanes="3" speed="22.22" priority="5"/>
    
    <edge id="nh48_2_edge" from="nh48_1" to="nh48_2" numLanes="3" speed="22.22" priority="5"/>
    <edge id="nh48_2_edge_rev" from="nh48_2" to="nh48_1" numLanes="3" speed="22.22" priority="5"/>
    
    <edge id="nh48_3_edge" from="nh48_2" to="nh48_north" numLanes="3" speed="22.22" priority="5"/>
    <edge id="nh48_3_edge_rev" from="nh48_north" to="nh48_2" numLanes="3" speed="22.22" priority="5"/>
    
    <edge id="nh48_to_bypass" from="nh48_north" to="bypass_junction" numLanes="3" speed="16.67" priority="4"/>
    <edge id="nh48_to_bypass_rev" from="bypass_junction" to="nh48_north" numLanes="3" speed="16.67" priority="4"/>
    
    <!-- Wakad to Kaspate Vasti -->
    <edge id="wakad_east" from="wakad_chowk" to="kaspate_vasti" numLanes="2" speed="13.89" priority="3"/>
    <edge id="wakad_east_rev" from="kaspate_vasti" to="wakad_chowk" numLanes="2" speed="13.89" priority="3"/>
    
    <!-- Entry/Exit edges for traffic generation -->
    <edge id="entry_east_in" from="entry_east" to="kaspate_vasti" numLanes="2" speed="13.89" priority="2"/>
    <edge id="entry_east_out" from="kaspate_vasti" to="entry_east" numLanes="2" speed="13.89" priority="2"/>
    
    <edge id="entry_west_in" from="entry_west" to="hinjewadi_phase1" numLanes="2" speed="13.89" priority="2"/>
    <edge id="entry_west_out" from="hinjewadi_phase1" to="entry_west" numLanes="2" speed="13.89" priority="2"/>
    
    <edge id="entry_south_in" from="entry_south" to="nh48_south" numLanes="3" speed="22.22" priority="3"/>
    <edge id="entry_south_out" from="nh48_south" to="entry_south" numLanes="3" speed="22.22" priority="3"/>
    
    <edge id="entry_north_in" from="entry_north" to="dange_chowk" numLanes="2" speed="11.11" priority="2"/>
    <edge id="entry_north_out" from="dange_chowk" to="entry_north" numLanes="2" speed="11.11" priority="2"/>
</edges>
